14bus_Curr_Seq.Txt

SYMMETRICAL COMPONENT CURRENTS BY CIRCUIT ELEMENT (first 3 phases)

Element          Term      I1         I2         %I2/I1    I0         %I0/I1   %Normal %Emergency

"VSOURCE.SOURCE"   1      2543.9   1.2562E-006     0.00  1.8115E-007     0.00      0.00     0.00
   -               2      2543.9   1.2562E-006     0.00  1.8115E-007     0.00      0.00     0.00
"LINE.1" .......   1      370.39   1.832E-007     0.00  7.2766E-009     0.00     92.60    61.73
   -               2      370.39   1.832E-007     0.00  7.2776E-009     0.00      0.00     0.00
"LINE.2" .......   1      1410.7   7.0374E-007     0.00  9.6927E-008     0.00    352.68   235.12
   -               2      1410.7   7.0375E-007     0.00  9.6933E-008     0.00      0.00     0.00
"LINE.3" .......   1        1770   8.7378E-007     0.00  9.3794E-008     0.00    442.50   295.00
   -               2        1770   8.7378E-007     0.00  9.3791E-008     0.00      0.00     0.00
"LINE.5" .......   1      678.14   3.3401E-007     0.00  5.0202E-008     0.00    169.53   113.02
   -               2      678.14   3.3401E-007     0.00  5.0204E-008     0.00      0.00     0.00
"LINE.6" .......   1      240.24   1.1718E-007     0.00  1.4526E-008     0.00     60.06    40.04
   -               2      240.24   1.1718E-007     0.00  1.4528E-008     0.00      0.00     0.00
"LINE.7" .......   1      775.52   3.8313E-007     0.00  8.7288E-008     0.00    193.88   129.25
   -               2      775.52   3.8313E-007     0.00  8.729E-008     0.00      0.00     0.00
"LINE.8" .......   1      599.25   2.9626E-007     0.00  4.2486E-008     0.00    149.81    99.87
   -               2      599.25   2.9626E-007     0.00  4.2483E-008     0.00      0.00     0.00
"LINE.9" .......   1       506.4   2.5046E-007     0.00  3.5676E-008     0.00    126.60    84.40
   -               2       506.4   2.5046E-007     0.00  3.5683E-008     0.00      0.00     0.00
"LINE.10" ......   1       394.9   1.955E-007     0.00  3.8168E-008     0.00     98.73    65.82
   -               2       394.9   1.955E-007     0.00  3.8168E-008     0.00      0.00     0.00
"LINE.11" ......   1      99.937   4.9291E-008     0.00  1.6802E-008     0.00     24.98    16.66
   -               2      99.942   4.9293E-008     0.00  1.6802E-008     0.00      0.00     0.00
"LINE.12" ......   1      939.79   4.6468E-007     0.00  5.4724E-008     0.00    234.95   156.63
   -               2      939.79   4.6468E-007     0.00  5.4722E-008     0.00      0.00     0.00
"LINE.13" ......   1      417.06   2.0473E-007     0.00  2.8954E-008     0.00    104.26    69.51
   -               2      417.06   2.0474E-007     0.00  2.8956E-008     0.00      0.00     0.00
"LINE.14" ......   1      340.29   1.6636E-007     0.00  2.4672E-008     0.00     85.07    56.71
   -               2      340.29   1.6637E-007     0.00  2.467E-008     0.00      0.00     0.00
"LINE.15" ......   1      199.49   1.0228E-007     0.00  1.4833E-008     0.00     49.87    33.25
   -               2      199.49   1.0228E-007     0.00  1.4833E-008     0.00      0.00     0.00
"LINE.16" ......   1      446.89   2.2434E-007     0.00  3.9945E-008     0.00    111.72    74.48
   -               2      446.89   2.2435E-007     0.00  3.9945E-008     0.00      0.00     0.00
"LINE.17" ......   1      339.68   1.6682E-007     0.00  2.0615E-008     0.00     84.92    56.61
   -               2      339.67   1.6682E-007     0.00  2.0615E-008     0.00      0.00     0.00
"TRANSFORMER.T2"   1      505.89   2.498E-007     0.00  3.5641E-008     0.00     54.96    40.31
   -               2      2357.4   1.1641E-006     0.00  1.6609E-007     0.00      0.00     0.00
"TRANSFORMER.T3"   1      175.61   8.7257E-008     0.00  1.5858E-008     0.00     19.08    13.99
   -               2      850.84   4.2276E-007     0.00  7.683E-008     0.00      0.00     0.00
"TRANSFORMER.T4"   1      288.49   1.4392E-007     0.00  1.9823E-008     0.00     31.34    22.99
   -               2      1410.7   7.0375E-007     0.00  9.6934E-008     0.00      0.00     0.00
"TRANSFORMER.T5"   1  6.779E-013   6.779E-013   100.00  6.779E-013   100.00      0.00     0.00
   -               2   0.0036556   4.2892E-012     0.00  1.2862E-012     0.00      0.00     0.00
"LOAD.11" ......   1      79.764   3.944E-008     0.00  4.2889E-009     0.00      0.00     0.00
"LOAD.13" ......   1      701.69   3.4812E-007     0.00  5.1795E-008     0.00      0.00     0.00
"LOAD.3" .......   1      914.48   4.4942E-007     0.00  6.4738E-008     0.00      0.00     0.00
"LOAD.5" .......   1      70.912   3.4933E-008     0.00  4.9228E-009     0.00      0.00     0.00
"LOAD.2" .......   1      217.46   1.0713E-007     0.00  1.4698E-008     0.00      0.00     0.00
"LOAD.6" .......   1      625.07   3.0963E-007     0.00  4.5528E-008     0.00      0.00     0.00
"LOAD.4" .......   1      444.94   2.1907E-007     0.00  3.1194E-008     0.00      0.00     0.00
"LOAD.14" ......   1      773.91   3.8429E-007     0.00  5.7772E-008     0.00      0.00     0.00
"LOAD.12" ......   1      298.77   1.4815E-007     0.00  2.1999E-008     0.00      0.00     0.00
"LOAD.9" .......   1      1631.1   8.0828E-007     0.00  1.1986E-007     0.00      0.00     0.00
"LOAD.10" ......   1      517.29   2.5648E-007     0.00  3.8107E-008     0.00      0.00     0.00
